# generated using pymatgen
data_H2O_modified
_symmetry_space_group_name_H-M   P6_3cm
_cell_length_a   7.50422061
_cell_length_b   7.50422061
_cell_length_c   7.06264348
_cell_angle_alpha   90.00000000
_cell_angle_beta   90.00000000
_cell_angle_gamma   120.00000000
_symmetry_Int_Tables_number   185
_chemical_formula_structural   H2O
_chemical_formula_sum   'H24 O12'
_cell_volume   344.43644781
_cell_formula_units_Z   12
loop_
 _symmetry_equiv_pos_site_id
 _symmetry_equiv_pos_as_xyz
  1  'x, y, z'
  2  'x-y, x, z+1/2'
  3  '-y, x-y, z'
  4  '-x, -y, z+1/2'
  5  '-x+y, -x, z'
  6  'y, -x+y, z+1/2'
  7  'y, x, z'
  8  'x, x-y, z+1/2'
  9  'x-y, -y, z'
  10  '-y, -x, z+1/2'
  11  '-x, -x+y, z'
  12  '-x+y, y, z+1/2'
loop_
 _atom_type_symbol
 _atom_type_oxidation_number
  H+  1.0
  O2-  -2.0
  X   0.0   # Ghost atom placeholder

loop_
 _atom_site_type_symbol
 _atom_site_label
 _atom_site_symmetry_multiplicity
 _atom_site_fract_x
 _atom_site_fract_y
 _atom_site_fract_z
 _atom_site_occupancy
  H+  H0  12  0.12373538  0.33075708  0.47850636  1
  H+  H1  6  0.00000000  0.33601722  0.19603087  1
  H+  H2  6  0.00000000  0.46040138  0.01139295  1
  O2- O3  6  0.00000000  0.33258577  0.43040656  1
  O2- O4  6  0.00000000  0.33423126  0.05515691  1
  X   X1  2  0.00000000  0.30258577  0.480040656  0  # Ghost atom near O3
  X   X2  2  0.00000000  0.39820930  0.10371191  0  # Ghost atom near O4

